*Heading
** Job name: VF_HS_1 Model name: Model-1
** Generated by: Abaqus/CAE Unofficial Packaging Version
*Preprint, echo=NO, model=NO, history=NO, contact=NO
**
** PARTS
**
*Part, name=Part-1
*Node
      1,   1.01298332,   19.9743309,           0.
      2,   3.02855563,   19.7693672,           0.
      3,   4.02597046,   19.5905991,           0.
      4,   5.98726225,   19.0827847,           0.
      5,     6.946105,    18.755043,           0.
      6,   8.80788326,   17.9560909,           0.
      7,   9.70603943,   17.4869328,           0.
      8,   11.4253645,   16.4152679,           0.
      9,   12.2421198,   15.8155146,           0.
     10,   13.7793388,   14.4958553,           0.
     11,   14.4958553,   13.7793388,           0.
     12,   15.8155146,   12.2421198,           0.
     13,   16.4152679,   11.4253645,           0.
     14,   17.4869328,   9.70603943,           0.
     15,   17.9560909,   8.80788326,           0.
     16,    18.755043,     6.946105,           0.
     17,   19.0827847,   5.98726225,           0.
     18,   19.5905991,   4.02597046,           0.
     19,   19.7693672,   3.02855563,           0.
     20,   19.9743309,   1.01298332,           0.
** ... 2921 like lines cut
*Element, type=R3D3
 1, 2668,  578,  618
 2,  520,  519,  558
 3, 1134, 1160, 1123
 4, 1272, 1247, 1235
 5, 1654, 1702, 1703
 6, 2312, 2354, 2355
 7, 2928, 1471, 1517
 8, 1631, 1630, 1678
 9, 1717, 2941, 1762
10, 1929, 1877, 1928
11, 2671, 1749, 2647
12, 1181, 1218, 1182
13, 2693, 1904, 1821
14, 1081, 1105, 1106
15, 1539, 1572, 1540
16, 1379, 1414, 1380
17, 1231, 2806, 1251
18, 1005,  961, 1006
19, 1858, 1892, 2882
20, 2670,  158, 2634
** ... 70 like lines cut
*Element, type=R3D4
  91, 2450,  706,  705, 2451
  92,   87,  665,  706, 2450
  93,  667,  703,  704,  666
  94,  593,  594,  629,  630
  95,  514,  542,  541,  515
  96,  514,  475,  474,  513
  97,  473, 2748,  489,  457
  98, 2832, 2793,  457,  432
  99,  430,  455,  456,  431
 100,  429,  430,  391,  390
 101,  390,  410, 2760,  389
 102,  370,  412,  411,  371
 103,  369,  370,  335,  334
 104,  359,  333,  334,  358
 105,  360,  359,  315,  314
 106,  290,  313,  314,  291
 107,  289,  290,  250,  249
 108,  285,  248,  249,  284
 109,  229,  286,  285,  230
 110,    2,    3,  229,  189
** ... 2812 like lines cut
*Node
   2942,           0.,          20.,           0.
*Nset, nset=Part-1-RefPt_, internal
2942, 
*Nset, nset=Rigid_full, generate
    1,  2941,     1
*Elset, elset=Rigid_full, generate
    1,  2922,     1
*Nset, nset=rigid_edge
   22,   23,   24,   25,   26,   27,   28,   29,   30,   31,   32,   33,   34,   35,   36,   37
   38,   39,   40,   41,   42,   43,   44,   45,   46,   47,   48,   49,   50,   51,   52,   53
   54,   55,   56,   57,   58,   59,   60,   61,   62,   63,   64,   65,   66,   67,   68,   69
   70,   71,   72,   73,   74,   75,   76,   77,   78,   79,   80,   81,   82,   83,   84,   85
   86,   87,   88,   89,   90,   91,   92,   93,   94,   95,   96,   97,   98,   99,  100,  101
  102, 2416, 2417, 2418, 2419, 2420, 2421, 2422, 2423, 2424, 2425, 2426, 2427, 2428, 2429, 2430
 2431, 2432, 2433, 2434, 2435, 2436, 2437, 2438, 2439, 2440, 2441, 2442, 2443, 2444, 2445, 2446
 2447, 2448, 2449, 2450, 2451, 2452, 2453, 2454, 2455, 2456, 2457, 2458, 2459, 2460
*Elset, elset=rigid_edge
   91,   92,  132,  166,  182,  183,  215,  216,  234,  244,  255,  256,  268,  281,  283,  285
  286,  295,  296,  297,  305,  306,  309,  310,  312,  319,  320,  331,  345,  354,  392,  393
  394,  395,  447,  448,  449,  520,  544,  564,  581,  599,  613,  627,  638,  647,  651,  655
  659,  660,  661,  690,  691,  692,  693,  740,  742,  776,  809,  820,  821,  823,  824,  825
  826,  827,  828,  829,  925,  926,  928,  983, 1163, 1220, 1400, 1472, 1528, 1569, 1633, 1769
 1877, 1931, 1941, 1944, 1945, 1947, 1954, 1955, 1956, 1964, 1969, 1970, 1973, 1976, 1977, 1980
 2006, 2012, 2030, 2037, 2048, 2053, 2059, 2064, 2068, 2069, 2071, 2072, 2076, 2077, 2078, 2079
 2080, 2081, 2133, 2134, 2135, 2766, 2769, 2775, 2776, 2777, 2778, 2779, 2792, 2809
*Elset, elset=_Rigid_internal_SNEG, internal, generate
    1,  2922,     1
*Surface, type=ELEMENT, name=Rigid_internal
_Rigid_internal_SNEG, SNEG
*Elset, elset=_rigid_external_SPOS, internal, generate
    1,  2922,     1
*Surface, type=ELEMENT, name=rigid_external
_rigid_external_SPOS, SPOS
*End Part
**  
*Part, name=Part-2
*Node
      1,          20.,           0.,          25.
      2,         -20.,           0.,          25.
      3,          25.,           0.,          50.
      4,         -25.,           0.,          50.
      5,         -25.,           0.,           0.
      6,          25.,           0.,           0.
      7,         19.5,           0.,          25.
      8,          19.,           0.,          25.
      9,         18.5,           0.,          25.
     10,          18.,           0.,          25.
     11,         17.5,           0.,          25.
     12,          17.,           0.,          25.
     13,         16.5,           0.,          25.
     14,          16.,           0.,          25.
     15,         15.5,           0.,          25.
     16,          15.,           0.,          25.
     17,         14.5,           0.,          25.
     18,          14.,           0.,          25.
     19,         13.5,           0.,          25.
     20,          13.,           0.,          25.
** ... 11876 like lines cut
*Element, type=S3
 1, 3027, 2996, 2921
 2, 3545, 2514, 2571
 3, 2874, 2865, 2827
 4, 2931, 2893,  958
 5, 3492,  891, 2503
 6, 2481, 3460,  940
 7, 3237,  801, 1578
 8, 3372, 1526, 1593
 9, 3322, 3265, 2026
10, 3212, 1595,  733
11, 2424, 2350,  984
12, 2827, 1021, 2786
13, 3220, 1495, 1521
14, 1662, 1619, 1569
15, 1663, 1618, 1570
16, 1749, 1668, 1574
17, 1728, 1611,  772
18, 1846, 1764, 1689
19, 1765, 1534, 1535
20, 3325, 1796, 1160
** ... 314 like lines cut
*Element, type=S4R
  81, 1320, 1256,  209,  210
  82, 1457,  769, 1630, 1522
  83,  769, 1471, 1529, 1612
  84, 1604, 1520, 1686,  804
  85, 1965, 3277, 1881, 2023
  86, 1753, 1500, 1673,  802
  87, 1574, 1668, 3270, 3236
  88, 1813, 1749,  764, 1899
  89, 1452, 1559, 1769,  763
  90,  762, 1468, 1570, 1618
  91,  761, 1467, 1557, 1626
  92, 3241,  759, 3168, 1750
  93, 3255, 1572, 1579, 1671
  94, 1579, 1572, 1542,  758
  95, 1970,  757, 3218, 1937
  96, 1517, 1685, 1759, 3240
  97,  755, 1466, 1528, 1603
  98,  754, 1465, 1552, 1609
  99, 1766, 1692, 3239,  787
 100,  751, 1453, 1551, 1615
** ... 11508 like lines cut
*Nset, nset=LCE_full, generate
     1,  11896,      1
*Elset, elset=LCE_full, generate
     1,  11862,      1
*Nset, nset=LCE_circle
     1,     2,     7,     8,     9,    10,    11,    12,    13,    14,    15,    16,    17,    18,    19,    20
    21,    22,    23,    24,    25,    26,    27,    28,    29,    30,    31,    32,    33,    34,    35,    36
    37,    38,    39,    40,    41,    42,    43,    44,    45,    46,    47,    48,    49,    50,    51,    52
    53,    54,    55,    56,    57,    58,    59,    60,    61,    62,    63,    64,    65,    66,    67,    68
    69,    70,    71,    72,    73,    74,    75,    76,    77,    78,    79,    80,    81,    82,    83,    84
    85,    86,    87,    88,    89,    90,    91,    92,    93,    94,    95,    96,    97,    98,    99,   100
   101,   102,   103,   104,   105,   106,   107,   108,   109,   110,   111,   112,   113,   114,   115,   116
   117,   118,   119,   120,   121,   122,   123,   124,   125,   126,   127,   128,   129,   130,   131,   132
   133,   134,   135,   136,   137,   138,   139,   140,   141,   142,   143,   144,   145,   146,   147,   148
   149,   150,   151,   152,   153,   154,   155,   156,   157,   158,   159,   160,   161,   162,   163,   164
   165,   166,   167,   168,   169,   170,   171,   172,   173,   174,   175,   176,   177,   178,   179,   180
   181,   182,   183,   184,   185,   186,   187,   188,   189,   190,   191,   192,   193,   194,   195,   196
   197,   198,   199,   200,   201,   202,   203,   204,   205,   206,   207,   208,   209,   210,   607,   608
   609,   610,   611,   612,   613,   614,   615,   616,   617,   618,   619,   620,   621,   622,   623,   624
   625,   626,   627,   628,   629,   630,   631,   632,   633,   634,   635,   636,   637,   638,   639,   640
   641,   642,   643,   644,   645,   646,   647,   648,   649,   650,   651,   652,   653,   654,   655,   656
   657,   658,   659,   660,   661,   662,   663,   664,   665,   666,   667,   668,   669,   670,   671,   672
   673,   674,   675,   676,   677,   678,   679,   680,   681,   682,   683,   684,   685,   686,   687,   688
   689,   690,   691,   692,   693,   694,   695,   696,   697,   698,   699,   700,   701,   702,   703,   704
   705,   706,   707,   708,   709,   710,   711,   712,   713,   714,   715,   716,   717,   718,   719,   720
** ... 366 like lines cut
*Elset, elset=LCE_circle
     1,     2,     3,     4,     5,     6,     7,     8,     9,    10,    11,    12,    13,    14,    15,    16
    17,    18,    19,    20,    21,    22,    23,    24,    25,    26,    27,    28,    29,    30,    31,    32
    33,    34,    35,    36,    37,    38,    39,    40,    41,    42,    43,    44,    45,    46,    47,    48
    49,    50,    51,    52,    53,    54,    55,    56,    57,    58,    59,    60,    61,    62,    63,    64
    65,    66,    67,    68,    69,    70,    71,    72,    73,    74,    75,    76,    77,    78,    79,    80
    81,    82,    83,    84,    85,    86,    87,    88,    89,    90,    91,    92,    93,    94,    95,    96
    97,    98,    99,   100,   101,   102,   103,   104,   105,   106,   107,   108,   109,   110,   111,   112
   113,   114,   115,   116,   117,   118,   119,   120,   121,   122,   123,   124,   125,   126,   127,   128
   129,   130,   131,   132,   133,   134,   135,   136,   137,   138,   139,   140,   141,   142,   143,   144
   145,   146,   147,   148,   149,   150,   151,   152,   153,   154,   155,   156,   157,   158,   159,   160
   161,   162,   163,   164,   165,   166,   167,   168,   169,   170,   171,   172,   173,   174,   175,   176
   177,   178,   179,   180,   181,   182,   183,   184,   185,   186,   187,   188,   189,   190,   191,   192
   193,   194,   195,   196,   197,   198,   199,   200,   201,   202,   203,   204,   205,   206,   207,   208
   209,   210,   211,   212,   213,   214,   215,   216,   217,   218,   219,   220,   221,   222,   223,   224
   225,   226,   227,   228,   229,   230,   231,   232,   233,   234,   235,   236,   237,   238,   239,   240
   241,   242,   243,   244,   245,   246,   247,   248,   249,   250,   251,   252,   253,   254,   255,   256
   257,   258,   259,   260,   261,   262,   263,   264,   265,   266,   267,   268,   269,   270,   271,   272
   273,   274,   275,   276,   277,   278,   279,   280,   281,   282,   283,   284,   285,   286,   287,   288
   289,   290,   291,   292,   293,   294,   295,   296,   297,   298,   299,   300,   301,   302,   303,   304
   305,   306,   307,   308,   309,   310,   311,   312,   313,   314,   315,   316,   317,   318,   319,   320
** ... 363 like lines cut
*Nset, nset=LCE_edge
   1,   2,  86,  87,  88,  89,  90,  91,  92,  93,  94,  95,  96,  97,  98,  99
 100, 101, 102, 103, 104, 105, 106, 107, 108, 109, 110, 111, 112, 113, 114, 115
 116, 117, 118, 119, 120, 121, 122, 123, 124, 125, 126, 127, 128, 129, 130, 131
 132, 133, 134, 135, 136, 137, 138, 139, 140, 141, 142, 143, 144, 145, 146, 147
 148, 149, 150, 151, 152, 153, 154, 155, 156, 157, 158, 159, 160, 161, 162, 163
 164, 165, 166, 167, 168, 169, 170, 171, 172, 173, 174, 175, 176, 177, 178, 179
 180, 181, 182, 183, 184, 185, 186, 187, 188, 189, 190, 191, 192, 193, 194, 195
 196, 197, 198, 199, 200, 201, 202, 203, 204, 205, 206, 207, 208, 209, 210, 607
 608, 609, 610, 611, 612, 613, 614, 615, 616, 617, 618, 619, 620, 621, 622, 623
 624, 625, 626, 627, 628, 629, 630, 631, 632, 633, 634, 635, 636, 637, 638, 639
 640, 641, 642, 643, 644, 645, 646, 647, 648, 649, 650, 651, 652, 653, 654, 655
 656, 657, 658, 659, 660, 661, 662, 663, 664, 665, 666, 667, 668, 669, 670, 671
 672, 673, 674, 675, 676, 677, 678, 679, 680, 681, 682, 683, 684, 685, 686, 687
 688, 689, 690, 691, 692, 693, 694, 695, 696, 697, 698, 699, 700, 701, 702, 703
 704, 705, 706, 707, 708, 709, 710, 711, 712, 713, 714, 715, 716, 717, 718, 719
 720, 721, 722, 723, 724, 725, 726, 727, 728, 729, 730, 731
*Elset, elset=LCE_edge
    81,   118,   119,   120,   121,   122,   136,   137,   138,   201,   202,   203,   204,   207,   210,   213
   217,   218,   219,   220,   221,   222,   223,   226,   241,   270,   271,   272,   293,   308,   315,   316
   333,   334,   336,   337,   340,   352,   353,   354,   359,   367,   369,   766,   817,   891,   918,   920
   921,   922,  1061,  1062,  1065,  1072,  1073,  1088,  1090,  1091,  1102,  1109,  1112,  1151,  1152,  1154
  1155,  1156,  1157,  1158,  1159,  1160,  1161,  1162,  1163,  1164,  1165,  1166,  1167,  1169,  1170,  1171
  1172,  1173,  1174,  1176,  1178,  1180,  1183,  1186,  1187,  1188,  1189,  1190,  1191,  1192,  1193,  1194
  1195,  1197,  1198,  1199,  1200,  1201,  1203,  1205,  1215,  1217,  1223,  1224,  1228,  1234,  1235,  1236
  1239,  1242,  1246,  1250,  1252,  1256,  1260,  1262,  1271,  1272,  1355,  1356,  1357,  2943,  3443,  3444
  3447,  3448,  3449,  3466,  3485,  3487,  3488,  3500,  3502,  3515,  3517,  3518,  3530,  3531,  3543,  3544
  3559,  3561,  3562,  3578,  3626,  3631,  3632,  3633,  3662,  3663,  3665,  3828,  3836,  3852,  3853,  3860
  3874,  3875,  3900,  3949,  3950,  3992,  3994,  4350,  4355,  4356,  4368,  4370,  4371,  4377,  4378,  4382
  4383,  4392,  4393,  4402,  4404,  4405,  4406,  4407,  4409,  4410,  4419,  4421,  4423,  4426,  4432,  4438
  4442,  4444,  4445,  4446,  4448,  4449,  4463,  4464,  4465,  4472,  4476,  4477,  4478,  4479,  4486,  4489
  4491,  4492,  4493,  4494,  4498,  4499,  4500,  4502,  4510,  4516,  4523,  4524,  4530,  4532,  4533,  4538
  4640,  4663,  4704,  4709,  4710,  4711,  4734,  4747,  4767,  4817,  4833,  4841,  4851,  4861,  4865,  4866
  4875,  4903,  4907,  4973,  5114,  5124,  5126,  5193,  5197,  5199,  5203,  5221,  5270,  5302,  5303,  5480
  5481,  5482,  5483,  5484,  5485,  5486,  5487,  5488,  5489,  5490,  5491,  5492,  5493,  5494,  5495,  5496
  5497,  5498,  5500,  5501,  5502,  5503,  5504,  5505,  5506,  5507,  5508,  5509,  5510,  5511,  5512,  5513
  5514,  5515,  5516,  5517,  5518,  5519,  5520,  5521,  5522,  5523,  5524,  5525,  5527,  5529,  5530,  5531
  5532,  5533,  5534,  5535,  5536,  5537,  5539,  5540,  5541,  5542,  5543,  5544,  5545,  5546,  5547,  5548
** ... 12 like lines cut
*Nset, nset=LCE_leftout
    1,    2,    3,    4,    5,    6,   86,   87,   88,   89,   90,   91,   92,   93,   94,   95
   96,   97,   98,   99,  100,  101,  102,  103,  104,  105,  106,  107,  108,  109,  110,  111
  112,  113,  114,  115,  116,  117,  118,  119,  120,  121,  122,  123,  124,  125,  126,  127
  128,  129,  130,  131,  132,  133,  134,  135,  136,  137,  138,  139,  140,  141,  142,  143
  144,  145,  146,  147,  148,  149,  150,  151,  152,  153,  154,  155,  156,  157,  158,  159
  160,  161,  162,  163,  164,  165,  166,  167,  168,  169,  170,  171,  172,  173,  174,  175
  176,  177,  178,  179,  180,  181,  182,  183,  184,  185,  186,  187,  188,  189,  190,  191
  192,  193,  194,  195,  196,  197,  198,  199,  200,  201,  202,  203,  204,  205,  206,  207
  208,  209,  210,  211,  212,  213,  214,  215,  216,  217,  218,  219,  220,  221,  222,  223
  224,  225,  226,  227,  228,  229,  230,  231,  232,  233,  234,  235,  236,  237,  238,  239
  240,  241,  242,  243,  244,  245,  246,  247,  248,  249,  250,  251,  252,  253,  254,  255
  256,  257,  258,  259,  260,  261,  262,  263,  264,  265,  266,  267,  268,  269,  270,  271
  272,  273,  274,  275,  276,  277,  278,  279,  280,  281,  282,  283,  284,  285,  286,  287
  288,  289,  290,  291,  292,  293,  294,  295,  296,  297,  298,  299,  300,  301,  302,  303
  304,  305,  306,  307,  308,  309,  310,  311,  312,  313,  314,  315,  316,  317,  318,  319
  320,  321,  322,  323,  324,  325,  326,  327,  328,  329,  330,  331,  332,  333,  334,  335
  336,  337,  338,  339,  340,  341,  342,  343,  344,  345,  346,  347,  348,  349,  350,  351
  352,  353,  354,  355,  356,  357,  358,  359,  360,  361,  362,  363,  364,  365,  366,  367
  368,  369,  370,  371,  372,  373,  374,  375,  376,  377,  378,  379,  380,  381,  382,  383
  384,  385,  386,  387,  388,  389,  390,  391,  392,  393,  394,  395,  396,  397,  398,  399
** ... 355 like lines cut
*Elset, elset=LCE_leftout, generate
 3073,  8810,     1
*Elset, elset=_LCE_negy_SNEG, internal
     1,     2,     3,     4,     5,     6,     7,     8,     9,    10,    11,    12,    13,    14,    15,    16
    17,    18,    19,    20,    21,    22,    23,    24,    25,    26,    27,    28,    29,    30,    31,    32
    33,    34,    35,    36,    37,    38,    39,    40,    41,    42,    43,    44,    45,    46,    47,    48
    49,    50,    51,    52,    53,    54,    55,    56,    57,    58,    59,    60,    61,    62,    63,    64
    65,    66,    67,    68,    69,    70,    71,    72,    73,    74,    75,    76,    77,    78,    79,    80
    81,    82,    83,    84,    85,    86,    87,    88,    89,    90,    91,    92,    93,    94,    95,    96
    97,    98,    99,   100,   101,   102,   103,   104,   105,   106,   107,   108,   109,   110,   111,   112
   113,   114,   115,   116,   117,   118,   119,   120,   121,   122,   123,   124,   125,   126,   127,   128
   129,   130,   131,   132,   133,   134,   135,   136,   137,   138,   139,   140,   141,   142,   143,   144
   145,   146,   147,   148,   149,   150,   151,   152,   153,   154,   155,   156,   157,   158,   159,   160
   161,   162,   163,   164,   165,   166,   167,   168,   169,   170,   171,   172,   173,   174,   175,   176
   177,   178,   179,   180,   181,   182,   183,   184,   185,   186,   187,   188,   189,   190,   191,   192
   193,   194,   195,   196,   197,   198,   199,   200,   201,   202,   203,   204,   205,   206,   207,   208
   209,   210,   211,   212,   213,   214,   215,   216,   217,   218,   219,   220,   221,   222,   223,   224
   225,   226,   227,   228,   229,   230,   231,   232,   233,   234,   235,   236,   237,   238,   239,   240
   241,   242,   243,   244,   245,   246,   247,   248,   249,   250,   251,   252,   253,   254,   255,   256
   257,   258,   259,   260,   261,   262,   263,   264,   265,   266,   267,   268,   269,   270,   271,   272
   273,   274,   275,   276,   277,   278,   279,   280,   281,   282,   283,   284,   285,   286,   287,   288
   289,   290,   291,   292,   293,   294,   295,   296,   297,   298,   299,   300,   301,   302,   303,   304
   305,   306,   307,   308,   309,   310,   311,   312,   313,   314,   315,   316,   317,   318,   319,   320
** ... 363 like lines cut
*Surface, type=ELEMENT, name=LCE_negy
_LCE_negy_SNEG, SNEG
*Elset, elset=_LCE_posy_SPOS, internal
     1,     2,     3,     4,     5,     6,     7,     8,     9,    10,    11,    12,    13,    14,    15,    16
    17,    18,    19,    20,    21,    22,    23,    24,    25,    26,    27,    28,    29,    30,    31,    32
    33,    34,    35,    36,    37,    38,    39,    40,    41,    42,    43,    44,    45,    46,    47,    48
    49,    50,    51,    52,    53,    54,    55,    56,    57,    58,    59,    60,    61,    62,    63,    64
    65,    66,    67,    68,    69,    70,    71,    72,    73,    74,    75,    76,    77,    78,    79,    80
    81,    82,    83,    84,    85,    86,    87,    88,    89,    90,    91,    92,    93,    94,    95,    96
    97,    98,    99,   100,   101,   102,   103,   104,   105,   106,   107,   108,   109,   110,   111,   112
   113,   114,   115,   116,   117,   118,   119,   120,   121,   122,   123,   124,   125,   126,   127,   128
   129,   130,   131,   132,   133,   134,   135,   136,   137,   138,   139,   140,   141,   142,   143,   144
   145,   146,   147,   148,   149,   150,   151,   152,   153,   154,   155,   156,   157,   158,   159,   160
   161,   162,   163,   164,   165,   166,   167,   168,   169,   170,   171,   172,   173,   174,   175,   176
   177,   178,   179,   180,   181,   182,   183,   184,   185,   186,   187,   188,   189,   190,   191,   192
   193,   194,   195,   196,   197,   198,   199,   200,   201,   202,   203,   204,   205,   206,   207,   208
   209,   210,   211,   212,   213,   214,   215,   216,   217,   218,   219,   220,   221,   222,   223,   224
   225,   226,   227,   228,   229,   230,   231,   232,   233,   234,   235,   236,   237,   238,   239,   240
   241,   242,   243,   244,   245,   246,   247,   248,   249,   250,   251,   252,   253,   254,   255,   256
   257,   258,   259,   260,   261,   262,   263,   264,   265,   266,   267,   268,   269,   270,   271,   272
   273,   274,   275,   276,   277,   278,   279,   280,   281,   282,   283,   284,   285,   286,   287,   288
   289,   290,   291,   292,   293,   294,   295,   296,   297,   298,   299,   300,   301,   302,   303,   304
   305,   306,   307,   308,   309,   310,   311,   312,   313,   314,   315,   316,   317,   318,   319,   320
** ... 363 like lines cut
*Surface, type=ELEMENT, name=LCE_posy
_LCE_posy_SPOS, SPOS
** Section: Section-1
*Shell Section, elset=LCE_full, material=LCE
0.5, 11
*End Part
**  
**
** ASSEMBLY
**
*Assembly, name=Assembly
**  
*Instance, name=Part-2-1, part=Part-2
          0.,        -0.25,           0.
*End Instance
**  
*Instance, name=Part-1-1, part=Part-1
          0.,           0.,          25.
*End Instance
**  
*Nset, nset=_PickedSet11, internal, instance=Part-1-1
 2942,
** Constraint: Constraint-1
*Rigid Body, ref node=_PickedSet11, elset=Part-1-1.Rigid_full
*Elset, elset=__Int-1_msm_1_SNEG, internal, instance=Part-1-1, generate
    1,  2922,     1
*Surface, type=ELEMENT, name=_Int-1_msm_1, internal
__Int-1_msm_1_SNEG, SNEG
*End Assembly
*Amplitude, name=Amp-1
           0.01,         100000.,             0.1, 98728.9332240862,             0.2, 97474.0225556606,             0.3, 96235.0626398089
            0.4, 95011.8507318144,             0.5, 93804.1866639814,             0.6, 92611.8728128794,             0.7, 91434.7140670033
            0.8, 90272.5177948458,             0.9, 89125.0938133746,              1., 89125.0938133746
*Amplitude, name=Amp-2
             0.,              0.,            0.01,            0.01,            0.02,            0.02,            0.03,            0.03
           0.04,            0.04,            0.05,            0.05,            0.06,            0.06,            0.07,            0.07
           0.08,            0.08,            0.09,            0.09,             0.1,             0.1,            0.11,            0.11
           0.12,            0.12,            0.13,            0.13,            0.14,            0.14,            0.15,            0.15
           0.16,            0.16,            0.17,            0.17,            0.18,            0.18,            0.19,            0.19
            0.2,             0.2,            0.21,            0.21,            0.22,            0.22,            0.23,            0.23
           0.24,            0.24,            0.25,            0.25,            0.26,            0.26,            0.27,            0.27
           0.28,            0.28,            0.29,            0.29,             0.3,             0.3,            0.31,            0.31
           0.32,            0.32,            0.33,            0.33,            0.34,            0.34,            0.35,            0.35
           0.36,            0.36,            0.37,            0.37,            0.38,            0.38,            0.39,            0.39
            0.4,             0.4,            0.41,            0.41,            0.42,            0.42,            0.43,            0.43
           0.44,            0.44,            0.45,            0.45,            0.46,            0.46,            0.47,            0.47
           0.48,            0.48,            0.49,            0.49,             0.5,             0.5,            0.51,            0.51
           0.52,            0.52,            0.53,            0.53,            0.54,            0.54,            0.55,            0.55
           0.56,            0.56,            0.57,            0.57,            0.58,            0.58,            0.59,            0.59
            0.6,             0.6,            0.61,            0.61,            0.62,            0.62,            0.63,            0.63
           0.64,            0.64,            0.65,            0.65,            0.66,            0.66,            0.67,            0.67
           0.68,            0.68,            0.69,            0.69,             0.7,             0.7,            0.71,            0.71
           0.72,            0.72,            0.73,            0.73,            0.74,            0.74,            0.75,            0.75
           0.76,            0.76,            0.77,            0.77,            0.78,            0.78,            0.79,            0.79
** ... 6 like lines cut
** 
** MATERIALS
** 
*Material, name=LCE
*Density
 0.0013,
*Elastic
 1e+06, 0.5
*Expansion, type=ORTHO
0.,0.,0.
** 
** INTERACTION PROPERTIES
** 
*Surface Interaction, name=IntProp-1
1.,
*Friction
0.,
*Surface Behavior, pressure-overclosure=HARD
*Surface Smoothing, name=Int-1
, _Int-1_msm_1, SPHERICAL, 0., 0., 25.
** 
** PREDEFINED FIELDS
** 
** Name: Predefined Field-1   Type: Temperature
*Initial Conditions, type=TEMPERATURE
Part-2-1.LCE_full, 110.
** 
** INTERACTIONS
** 
** Interaction: Int-1
*Contact Pair, interaction=IntProp-1, type=SURFACE TO SURFACE, adjust=0.0, geometric correction=Int-1
Part-2-1.LCE_negy, Part-1-1.Rigid_internal
** ----------------------------------------------------------------
** 
** STEP: Step-1
** 
*Step, name=Step-1, nlgeom=YES, inc=10000
*Static, stabilize=2e-05, allsdtol=0.05, continue=NO
0.001, 1., 1e-12, 0.01
** 
** BOUNDARY CONDITIONS
** 
** Name: BC-1 Type: Symmetry/Antisymmetry/Encastre
*Boundary
Part-1-1.rigid_edge, ENCASTRE
** Name: BC-2 Type: Symmetry/Antisymmetry/Encastre
*Boundary
Part-2-1.LCE_edge, ENCASTRE
** 
** LOADS
** 
** Name: Load-1   Type: Pressure
*Dsload, amplitude=Amp-2
Part-2-1.LCE_negy, P, -100000.
** 
** INTERACTIONS
** 
** Interaction: Int-1
*Contact Interference, shrink
Part-2-1.LCE_negy, Part-1-1.Rigid_internal
** 
** CONTROLS
** 
*Controls, reset
*Controls, parameters=time incrementation
, , , , , , , 20, , , 
** 
** OUTPUT REQUESTS
** 
*Restart, write, frequency=0
** 
** FIELD OUTPUT: F-Output-1
** 
*Output, field, frequency=2
*Node Output
CF, COORD, RF, RM, RT, U, UR, UT
*Element Output, directions=YES
E, EE, HP, LE, MISES, NE, P, PE, PEEQ, PEMAG, S, SE, SF, STH, TE
*Contact Output
CDISP, CSTATUS, CSTRESS
** 
** HISTORY OUTPUT: H-Output-1
** 
*Output, history, variable=PRESELECT
*End Step
