*Heading
** Job name: HS1_nr_light2 Model name: Model-1
** Generated by: Abaqus/CAE Unofficial Packaging Version
*Preprint, echo=NO, model=NO, history=NO, contact=NO
**
** PARTS
**
*Part, name=Part-1
*Node
*********************************************************
*********************************************************
*include, input=HS1_nr_l2_Nodes_extended.inp
*********************************************************
*********************************************************
*Element, type=S4R
   1,    1,   18,  958,  167
   2,   18,   19,  959,  958
   3,   19,   20,  960,  959
   4,   20,   21,  961,  960
   5,   21,   22,  962,  961
   6,   22,   23,  963,  962
   7,   23,   24,  964,  963
   8,   24,   25,  965,  964
   9,   25,   26,  966,  965
  10,   26,   27,  967,  966
  11,   27,   28,  968,  967
  12,   28,   29,  969,  968
  13,   29,   30,  970,  969
  14,   30,   31,  971,  970
  15,   31,   32,  972,  971
  16,   32,   33,  973,  972
  17,   33,   34,  974,  973
  18,   34,   35,  975,  974
  19,   35,   36,  976,  975
  20,   36,   37,  977,  976
** ... 9299 like lines cut
*Element, type=S3
7201, 7744, 7732, 7743
7202, 7770, 7872, 7780
7203, 7674, 7690, 7691
7204, 7898, 7701, 7715
7205, 7629, 7612, 7903
7206, 7903, 7914, 7611
7207, 7929, 7634, 7633
7208, 7682, 7699, 7683
7209, 7760, 7889, 7759
7210, 7871, 7767, 7866
7211, 7871, 7745, 7870
7212, 7907, 7613, 7630
7213, 7910, 7577, 7557
7714, 8356, 7965, 7953
7715, 8352, 7952, 7951
7716, 7954, 8387, 8374
7717, 8424, 8139, 8165
7718, 8385, 8066, 8065
7719, 8437, 8067, 8105
7720, 8408, 8067, 8066
** ... 32 like lines cut
*Nset, nset=shell_full, generate
    1,  9436,     1
*Elset, elset=shell_full, generate
    1,  9371,     1
*Nset, nset=apex
 17,
*Nset, nset=shell_HS, generate
    1,  9436,     1
*Elset, elset=shell_HS, generate
    1,  9371,     1
*Nset, nset=shell_edge
   3,   4,  10,  13,  93,  94,  95,  96,  97,  98,  99, 100, 101, 102, 103, 104
 105, 106, 107, 108, 109, 110, 111, 112, 113, 114, 115, 116, 117, 118, 119, 120
 121, 122, 123, 124, 125, 126, 127, 128, 129, 130, 131, 132, 133, 134, 135, 136
 339, 340, 341, 342, 343, 344, 345, 346, 347, 348, 349, 350, 351, 352, 353, 354
 355, 356, 357, 358, 359, 360, 361, 362, 363, 364, 365, 366, 367, 368, 369, 370
 371, 372, 373, 374, 375, 376, 377, 378, 379, 380, 381, 382, 475, 476, 477, 478
 479, 480, 481, 482, 483, 484, 485, 486, 487, 488, 489, 490, 491, 492, 493, 494
 495, 496, 497, 498, 499, 500, 501, 502, 503, 504, 505, 506, 507, 508, 509, 510
 511, 512, 513, 514, 515, 516, 517, 518, 686, 687, 688, 689, 690, 691, 692, 693
 694, 695, 696, 697, 698, 699, 700, 701, 702, 703, 704, 705, 706, 707, 708, 709
 710, 711, 712, 713, 714, 715, 716, 717, 718, 719, 720, 721, 722, 723, 724, 725
 726, 727, 728, 729
*Elset, elset=shell_edge
 1396, 1397, 1398, 1399, 1400, 1401, 1402, 1403, 1404, 1405, 1406, 1407, 1408, 1409, 1410, 1411
 1412, 1413, 1414, 1415, 1416, 1417, 1418, 1419, 1420, 1421, 1422, 1423, 1424, 1425, 1426, 1427
 1428, 1429, 1430, 1431, 1432, 1433, 1434, 1435, 1436, 1437, 1438, 1439, 1440, 3061, 3062, 3063
 3064, 3065, 3066, 3067, 3068, 3069, 3070, 3071, 3072, 3073, 3074, 3075, 3076, 3077, 3078, 3079
 3080, 3081, 3082, 3083, 3084, 3085, 3086, 3087, 3088, 3089, 3090, 3091, 3092, 3093, 3094, 3095
 3096, 3097, 3098, 3099, 3100, 3101, 3102, 3103, 3104, 3105, 4636, 4637, 4638, 4639, 4640, 4641
 4642, 4643, 4644, 4645, 4646, 4647, 4648, 4649, 4650, 4651, 4652, 4653, 4654, 4655, 4656, 4657
 4658, 4659, 4660, 4661, 4662, 4663, 4664, 4665, 4666, 4667, 4668, 4669, 4670, 4671, 4672, 4673
 4674, 4675, 4676, 4677, 4678, 4679, 4680, 6301, 6302, 6303, 6304, 6305, 6306, 6307, 6308, 6309
 6310, 6311, 6312, 6313, 6314, 6315, 6316, 6317, 6318, 6319, 6320, 6321, 6322, 6323, 6324, 6325
 6326, 6327, 6328, 6329, 6330, 6331, 6332, 6333, 6334, 6335, 6336, 6337, 6338, 6339, 6340, 6341
 6342, 6343, 6344, 6345
*Nset, nset=shell_pinned14
   1,   2,   9,  12,  18,  19,  20,  21,  22,  23,  24,  25,  26,  27,  28,  29
  30,  31,  32,  33,  34,  35,  36,  37,  38,  39,  40,  41,  42,  43,  44,  45
  46,  47,  48,  49,  50,  51,  52,  53,  54,  55,  56,  57,  58,  59,  60,  61
 264, 265, 266, 267, 268, 269, 270, 271, 272, 273, 274, 275, 276, 277, 278, 279
 280, 281, 282, 283, 284, 285, 286, 287, 288, 289, 290, 291, 292, 293, 294, 295
 296, 297, 298, 299, 300, 301, 302, 303, 304, 305, 306, 307, 431, 432, 433, 434
 435, 436, 437, 438, 439, 440, 441, 442, 443, 444, 445, 446, 447, 448, 449, 450
 451, 452, 453, 454, 455, 456, 457, 458, 459, 460, 461, 462, 463, 464, 465, 466
 467, 468, 469, 470, 471, 472, 473, 474, 642, 643, 644, 645, 646, 647, 648, 649
 650, 651, 652, 653, 654, 655, 656, 657, 658, 659, 660, 661, 662, 663, 664, 665
 666, 667, 668, 669, 670, 671, 672, 673, 674, 675, 676, 677, 678, 679, 680, 681
 682, 683, 684, 685
*Elset, elset=shell_pinned14
    1,    2,    3,    4,    5,    6,    7,    8,    9,   10,   11,   12,   13,   14,   15,   16
   17,   18,   19,   20,   21,   22,   23,   24,   25,   26,   27,   28,   29,   30,   31,   32
   33,   34,   35,   36,   37,   38,   39,   40,   41,   42,   43,   44,   45, 1666, 1667, 1668
 1669, 1670, 1671, 1672, 1673, 1674, 1675, 1676, 1677, 1678, 1679, 1680, 1681, 1682, 1683, 1684
 1685, 1686, 1687, 1688, 1689, 1690, 1691, 1692, 1693, 1694, 1695, 1696, 1697, 1698, 1699, 1700
 1701, 1702, 1703, 1704, 1705, 1706, 1707, 1708, 1709, 1710, 3196, 3197, 3198, 3199, 3200, 3201
 3202, 3203, 3204, 3205, 3206, 3207, 3208, 3209, 3210, 3211, 3212, 3213, 3214, 3215, 3216, 3217
 3218, 3219, 3220, 3221, 3222, 3223, 3224, 3225, 3226, 3227, 3228, 3229, 3230, 3231, 3232, 3233
 3234, 3235, 3236, 3237, 3238, 3239, 3240, 3241, 3242, 3243, 3244, 3245, 3246, 3247, 3248, 3249
 3250, 3251, 3252, 3253, 3254, 3255, 3256, 3257, 3258, 3259, 3260, 3261, 3262, 3263, 3264, 3265
 3266, 3267, 3268, 3269, 3270, 3271, 3272, 3273, 3274, 3275, 3276, 3277, 3278, 3279, 3280, 3281
 3282, 3283, 3284, 3285, 4906, 4907, 4908, 4909, 4910, 4911, 4912, 4913, 4914, 4915, 4916, 4917
 4918, 4919, 4920, 4921, 4922, 4923, 4924, 4925, 4926, 4927, 4928, 4929, 4930, 4931, 4932, 4933
 4934, 4935, 4936, 4937, 4938, 4939, 4940, 4941, 4942, 4943, 4944, 4945, 4946, 4947, 4948, 4949
 4950, 6436, 6437, 6438, 6439, 6440, 6441, 6442, 6443, 6444, 6445, 6446, 6447, 6448, 6449, 6450
 6451, 6452, 6453, 6454, 6455, 6456, 6457, 6458, 6459, 6460, 6461, 6462, 6463, 6464, 6465, 6466
 6467, 6468, 6469, 6470, 6471, 6472, 6473, 6474, 6475, 6476, 6477, 6478, 6479, 6480, 6796, 6797
 6798, 6799, 6800, 6801, 6802, 6803, 6804, 6805, 6806, 6807, 6808, 6809, 6810, 6811, 6812, 6813
 6814, 6815, 6816, 6817, 6818, 6819, 6820, 6821, 6822, 6823, 6824, 6825, 6826, 6827, 6828, 6829
 6830, 6831, 6832, 6833, 6834, 6835, 6836, 6837, 6838, 6839, 6840, 7156, 7157, 7158, 7159, 7160
 7161, 7162, 7163, 7164, 7165, 7166, 7167, 7168, 7169, 7170, 7171, 7172, 7173, 7174, 7175, 7176
 7177, 7178, 7179, 7180, 7181, 7182, 7183, 7184, 7185, 7186, 7187, 7188, 7189, 7190, 7191, 7192
 7193, 7194, 7195, 7196, 7197, 7198, 7199, 7200
*Nset, nset=shell_pinned13
   5,   6,  11,  14, 168, 169, 170, 171, 172, 173, 174, 175, 176, 177, 178, 179
 180, 181, 182, 183, 184, 185, 186, 187, 188, 189, 190, 191, 192, 193, 194, 195
 196, 197, 198, 199, 200, 201, 202, 203, 204, 205, 206, 207, 208, 209, 210, 211
 383, 384, 385, 386, 387, 388, 389, 390, 391, 392, 393, 394, 395, 396, 397, 398
 399, 400, 401, 402, 403, 404, 405, 406, 407, 408, 409, 410, 411, 412, 413, 414
 415, 416, 417, 418, 419, 420, 421, 422, 423, 424, 425, 426, 550, 551, 552, 553
 554, 555, 556, 557, 558, 559, 560, 561, 562, 563, 564, 565, 566, 567, 568, 569
 570, 571, 572, 573, 574, 575, 576, 577, 578, 579, 580, 581, 582, 583, 584, 585
 586, 587, 588, 589, 590, 591, 592, 593, 730, 731, 732, 733, 734, 735, 736, 737
 738, 739, 740, 741, 742, 743, 744, 745, 746, 747, 748, 749, 750, 751, 752, 753
 754, 755, 756, 757, 758, 759, 760, 761, 762, 763, 764, 765, 766, 767, 768, 769
 770, 771, 772, 773
*Elset, elset=shell_pinned13
 1441, 1442, 1443, 1444, 1445, 1446, 1447, 1448, 1449, 1450, 1451, 1452, 1453, 1454, 1455, 1456
 1457, 1458, 1459, 1460, 1461, 1462, 1463, 1464, 1465, 1466, 1467, 1468, 1469, 1470, 1471, 1472
 1473, 1474, 1475, 1476, 1477, 1478, 1479, 1480, 1481, 1482, 1483, 1484, 1485, 3106, 3107, 3108
 3109, 3110, 3111, 3112, 3113, 3114, 3115, 3116, 3117, 3118, 3119, 3120, 3121, 3122, 3123, 3124
 3125, 3126, 3127, 3128, 3129, 3130, 3131, 3132, 3133, 3134, 3135, 3136, 3137, 3138, 3139, 3140
 3141, 3142, 3143, 3144, 3145, 3146, 3147, 3148, 3149, 3150, 4681, 4682, 4683, 4684, 4685, 4686
 4687, 4688, 4689, 4690, 4691, 4692, 4693, 4694, 4695, 4696, 4697, 4698, 4699, 4700, 4701, 4702
 4703, 4704, 4705, 4706, 4707, 4708, 4709, 4710, 4711, 4712, 4713, 4714, 4715, 4716, 4717, 4718
 4719, 4720, 4721, 4722, 4723, 4724, 4725, 6346, 6347, 6348, 6349, 6350, 6351, 6352, 6353, 6354
 6355, 6356, 6357, 6358, 6359, 6360, 6361, 6362, 6363, 6364, 6365, 6366, 6367, 6368, 6369, 6370
 6371, 6372, 6373, 6374, 6375, 6376, 6377, 6378, 6379, 6380, 6381, 6382, 6383, 6384, 6385, 6386
 6387, 6388, 6389, 6390, 6481, 6482, 6483, 6484, 6485, 6486, 6487, 6488, 6489, 6490, 6491, 6492
 6493, 6494, 6495, 6496, 6497, 6498, 6499, 6500, 6501, 6502, 6503, 6504, 6505, 6506, 6507, 6508
 6509, 6510, 6511, 6512, 6513, 6514, 6515, 6516, 6517, 6518, 6519, 6520, 6521, 6522, 6523, 6524
 6525, 6706, 6707, 6708, 6709, 6710, 6711, 6712, 6713, 6714, 6715, 6716, 6717, 6718, 6719, 6720
 6721, 6722, 6723, 6724, 6725, 6726, 6727, 6728, 6729, 6730, 6731, 6732, 6733, 6734, 6735, 6736
 6737, 6738, 6739, 6740, 6741, 6742, 6743, 6744, 6745, 6746, 6747, 6748, 6749, 6750, 6841, 6842
 6843, 6844, 6845, 6846, 6847, 6848, 6849, 6850, 6851, 6852, 6853, 6854, 6855, 6856, 6857, 6858
 6859, 6860, 6861, 6862, 6863, 6864, 6865, 6866, 6867, 6868, 6869, 6870, 6871, 6872, 6873, 6874
 6875, 6876, 6877, 6878, 6879, 6880, 6881, 6882, 6883, 6884, 6885, 7066, 7067, 7068, 7069, 7070
 7071, 7072, 7073, 7074, 7075, 7076, 7077, 7078, 7079, 7080, 7081, 7082, 7083, 7084, 7085, 7086
 7087, 7088, 7089, 7090, 7091, 7092, 7093, 7094, 7095, 7096, 7097, 7098, 7099, 7100, 7101, 7102
 7103, 7104, 7105, 7106, 7107, 7108, 7109, 7110
*Nset, nset=shell_pinned10
   7,   8,  15,  16, 216, 217, 218, 219, 220, 221, 222, 223, 224, 225, 226, 227
 228, 229, 230, 231, 232, 233, 234, 235, 236, 237, 238, 239, 240, 241, 242, 243
 244, 245, 246, 247, 248, 249, 250, 251, 252, 253, 254, 255, 256, 257, 258, 259
 598, 599, 600, 601, 602, 603, 604, 605, 606, 607, 608, 609, 610, 611, 612, 613
 614, 615, 616, 617, 618, 619, 620, 621, 622, 623, 624, 625, 626, 627, 628, 629
 630, 631, 632, 633, 634, 635, 636, 637, 638, 639, 640, 641, 780, 781, 782, 783
 784, 785, 786, 787, 788, 789, 790, 791, 792, 793, 794, 795, 796, 797, 798, 799
 800, 801, 802, 803, 804, 805, 806, 807, 808, 809, 810, 811, 812, 813, 814, 815
 816, 817, 818, 819, 820, 821, 822, 823, 826, 827, 828, 829, 830, 831, 832, 833
 834, 835, 836, 837, 838, 839, 840, 841, 842, 843, 844, 845, 846, 847, 848, 849
 850, 851, 852, 853, 854, 855, 856, 857, 858, 859, 860, 861, 862, 863, 864, 865
 866, 867, 868, 869
*Elset, elset=shell_pinned10
 1621, 1622, 1623, 1624, 1625, 1626, 1627, 1628, 1629, 1630, 1631, 1632, 1633, 1634, 1635, 1636
 1637, 1638, 1639, 1640, 1641, 1642, 1643, 1644, 1645, 1646, 1647, 1648, 1649, 1650, 1651, 1652
 1653, 1654, 1655, 1656, 1657, 1658, 1659, 1660, 1661, 1662, 1663, 1664, 1665, 4861, 4862, 4863
 4864, 4865, 4866, 4867, 4868, 4869, 4870, 4871, 4872, 4873, 4874, 4875, 4876, 4877, 4878, 4879
 4880, 4881, 4882, 4883, 4884, 4885, 4886, 4887, 4888, 4889, 4890, 4891, 4892, 4893, 4894, 4895
 4896, 4897, 4898, 4899, 4900, 4901, 4902, 4903, 4904, 4905, 6661, 6662, 6663, 6664, 6665, 6666
 6667, 6668, 6669, 6670, 6671, 6672, 6673, 6674, 6675, 6676, 6677, 6678, 6679, 6680, 6681, 6682
 6683, 6684, 6685, 6686, 6687, 6688, 6689, 6690, 6691, 6692, 6693, 6694, 6695, 6696, 6697, 6698
 6699, 6700, 6701, 6702, 6703, 6704, 6705, 7021, 7022, 7023, 7024, 7025, 7026, 7027, 7028, 7029
 7030, 7031, 7032, 7033, 7034, 7035, 7036, 7037, 7038, 7039, 7040, 7041, 7042, 7043, 7044, 7045
 7046, 7047, 7048, 7049, 7050, 7051, 7052, 7053, 7054, 7055, 7056, 7057, 7058, 7059, 7060, 7061
 7062, 7063, 7064, 7065, 7233, 7254, 7256, 7268, 7277, 7278, 7281, 7282, 7283, 7284, 7285, 7286
 7289, 7290, 7291, 7292, 7293, 7295, 7296, 7298, 7299, 7300, 7316, 7317, 7320, 7321, 7427, 7428
 7492, 7499, 7561, 7569, 7570, 7590, 7611, 7637, 7640, 7641, 7643, 7644, 7645, 7646, 7647, 7651
 7658, 7727, 7728, 7730, 7731, 7772, 7774, 7775, 7776, 7794, 7814, 7849, 7850, 7869, 7906, 7912
 7917, 7918, 7919, 7930, 7939, 7940, 7943, 7944, 7954, 8032, 8064, 8078, 8079, 8085, 8095, 8097
 8100, 8148, 8168, 8180, 8185, 8186, 8187, 8188, 8189, 8190, 8191, 8199, 8201, 8202, 8302, 8303
 8305, 8306, 8344, 8346, 8347, 8349, 8368, 8389, 8422, 8423, 8442, 8478, 8482, 8487, 8488, 8489
 8500, 8509, 8510, 8513, 8514, 8525, 8603, 8633, 8646, 8649, 8650, 8671, 8673, 8676, 8728, 8749
 8767, 8768, 8769, 8770, 8771, 8772, 8784, 8785, 8786, 8787, 8810, 8897, 8916, 8930, 8931, 8940
 8943, 8944, 8945, 8946, 8947, 8948, 8951, 8952, 8953, 8954, 8955, 8957, 8958, 8960, 8961, 8977
 8978, 8983, 8984, 9085, 9086, 9151, 9154, 9159, 9231, 9239, 9240, 9259, 9284, 9307, 9309, 9312
 9313, 9315, 9316, 9317, 9318, 9319, 9324, 9332
*********************************************************
*********************************************************
*include, input=HS1_nr_l2_Sets.inp
*********************************************************
*********************************************************  
*Elset, elset=_shell_Edge1_SNEG, internal, generate
    1,  9371,     1
*Surface, type=ELEMENT, name=shell_Edge1
_shell_Edge1_SNEG, SNEG
*Elset, elset=_shell_Edge2_SPOS, internal, generate
    1,  9371,     1
*Surface, type=ELEMENT, name=shell_Edge2
_shell_Edge2_SPOS, SPOS
*********************************************************
*********************************************************
*include, input=HS1_nr_l2_matset.inp
*********************************************************
*********************************************************
*End Part
**  
**
** ASSEMBLY
**
*Assembly, name=Assembly
**  
*Instance, name=Part-1-1, part=Part-1
*End Instance
**  
*End Assembly
*Amplitude, name=Amp-1
           0.01,              0.,              0.5,              1.,     1.0, 1.
*********************************************************
*********************************************************
*include, input=Amplitudes_file.inp
*********************************************************
*********************************************************  
** 
** MATERIALS
** 
*Material, name=LCE
*Density
 0.0013,
*Elastic
 1e+06, 0.3
*Expansion, type=ORTHO
 0.01, 0.01, 0.01
*Material, name=Ring
*Density
 0.0013,
*Elastic
 1e+09, 0.3
*Expansion, type=ORTHO
0.,0.,0.
*********************************************************
*********************************************************
*include, input=HS1_nr_l2_matprop_L0p6_20.inp
*********************************************************
*********************************************************
** 
** BOUNDARY CONDITIONS
** 
** Name: BC-1 Type: Symmetry/Antisymmetry/Encastre
*Boundary
Part-1-1.shell_pinned13, PINNED
** 
** PREDEFINED FIELDS
** 
** Name: Predefined Field-1   Type: Temperature
*Initial Conditions, type=TEMPERATURE
Part-1-1.shell_full, 25.
** ----------------------------------------------------------------
** 
** STEP: Step-1
** 
*Step, name=Step-1, nlgeom=YES, inc=10000
*Dynamic,application=MODERATE DISSIPATION,initial=NO
0.001,1.,1e-05,0.1
** 
** LOADS
** 
** Name: Load-1   Type: Gravity
*Dload
Part-1-1.shell_full, GRAV, 9800., 0., 1., 0.
** Name: Load-2   Type: Pressure
*Dsload, amplitude=Amp-1
Part-1-1.shell_Edge1, P, 156.8
** 
** CONTROLS
** 
*Controls, reset
*Controls, parameters=time incrementation
, , , , , , , 20, , , 
** 
** OUTPUT REQUESTS
** 
*Restart, write, frequency=0
** 
** FIELD OUTPUT: F-Output-1
** 
*Output, field, frequency=2
*Node Output
A, CF, COORD, NT, RF, U, V
*Element Output, directions=YES
E, EE, LE, MISES, NE, S, STH, TEMP
*Contact Output
CDISP, CSTATUS, CSTRESS
** 
** HISTORY OUTPUT: H-Output-1
** 
*Output, history, variable=PRESELECT
*End Step
** ----------------------------------------------------------------
** 
** STEP: Step-2
** 
*Step, name=Step-2, nlgeom=YES, inc=10000
*Dynamic,application=MODERATE DISSIPATION,initial=NO
0.001,10.,1e-06,0.1
** 
** PREDEFINED FIELDS
** 
** Name: Predefined Field-1   Type: Temperature
*Temperature, user
Part-1-1.shell_full
** 
** OUTPUT REQUESTS
** 
*Restart, write, frequency=0
** 
** FIELD OUTPUT: F-Output-1
** 
*Output, field, frequency=1
*Node Output
A, CF, COORD, NT, RF, U, V
*Element Output, directions=YES
E, EE, LE, MISES, NE,  S, STH, TEMP
*Contact Output
CDISP, CSTATUS, CSTRESS
** 
** HISTORY OUTPUT: H-Output-1
** 
*Output, history, variable=PRESELECT
*End Step
