*Heading
** Job name: HS1_nr Model name: Model-1
** Generated by: Abaqus/CAE Unofficial Packaging Version
*Preprint, echo=NO, model=NO, history=NO, contact=NO
**
** PARTS
**
*Part, name=Part-1
*Node
*********************************************************
*********************************************************
*include, input=HS1_nr_Nodes_extended.inp
*********************************************************
*********************************************************
*Element, type=S3
 1, 1431, 1355, 1354
 2, 3348, 1577, 1548
 3, 1287, 1357, 1358
 4, 1087, 3289, 3284
 5, 1257, 1316, 1289
 6,  982, 1058, 1016
 7,  740,  821,  822
 8, 1154, 1215, 2905
 9, 3372, 1515, 1514
10, 3362, 1465, 1512
11, 3074, 2317, 2803
12, 2994, 2505, 2504
13, 1831, 1805, 1757
14, 3132, 2305, 2335
15, 1989, 1988, 2079
16, 2151, 2150, 2241
17,  842,  935,  934
18, 2777,  928,  929
19, 2807, 2777, 1036
20,  997, 1105,  998
** ... 298 like lines cut
*Element, type=S4R
  90, 2704,  502, 2702, 2701
  91, 2701, 2702, 2747, 2700
  92, 2700, 2747, 2764, 2699
  93, 2764, 2749, 2698, 2699
  94, 2698, 2749, 2752, 2697
  95, 2752, 2766, 2696, 2697
  96, 2758, 2695, 2696, 2766
  97, 2694, 2695, 2758, 2746
  98,   14,   15, 2756, 2746
  99,   15,   16, 2771, 2756
 100, 2744, 2741,   17,   18
 101, 2824, 2744,   18,   19
 102, 2835, 2824,   19,   20
 103, 2848, 2835,   20,   21
 104, 2858, 2848,   21,   22
 105, 2867, 2858,   22,   23
 106, 2875, 2867,   23,   24
 107, 2876, 2875,   24,   25
 108, 2684, 2876, 2877, 2683
 109, 2683, 2877, 2682, 2638
** ... 11506 like lines cut
*Nset, nset=shell_full, generate
     1,  11812,      1
*Elset, elset=shell_full, generate
     1,  11844,      1
*Nset, nset=apex
 1,
*Nset, nset=pinned
 2, 
*Nset, nset=shell_HS, generate
     1,  11812,      1
*Elset, elset=shell_HS, generate
     1,  11844,      1
*Nset, nset=shell_edge
   2,   3,   4,   5,  68,  69,  70,  71,  72,  73,  74,  75,  76,  77,  78,  79
  80,  81,  82,  83,  84,  85,  86,  87,  88,  89,  90,  91,  92,  93,  94,  95
  96,  97,  98,  99, 100, 101, 102, 103, 104, 105, 106, 107, 108, 109, 110, 111
 112, 113, 114, 115, 116, 117, 118, 119, 120, 121, 122, 123, 124, 125, 126, 127
 128, 129, 254, 255, 256, 257, 258, 259, 260, 261, 262, 263, 264, 265, 266, 267
 268, 269, 270, 271, 272, 273, 274, 275, 276, 277, 278, 279, 280, 281, 282, 283
 284, 285, 286, 287, 288, 289, 290, 291, 292, 293, 294, 295, 296, 297, 298, 299
 300, 301, 302, 303, 304, 305, 306, 307, 308, 309, 310, 311, 312, 313, 314, 315
 378, 379, 380, 381, 382, 383, 384, 385, 386, 387, 388, 389, 390, 391, 392, 393
 394, 395, 396, 397, 398, 399, 400, 401, 402, 403, 404, 405, 406, 407, 408, 409
 410, 411, 412, 413, 414, 415, 416, 417, 418, 419, 420, 421, 422, 423, 424, 425
 426, 427, 428, 429, 430, 431, 432, 433, 434, 435, 436, 437, 438, 439, 440, 441
 442, 443, 444, 445, 446, 447, 448, 449, 450, 451, 452, 453, 454, 455, 456, 457
 458, 459, 460, 461, 462, 463, 464, 465, 466, 467, 468, 469, 470, 471, 472, 473
 474, 475, 476, 477, 478, 479, 480, 481, 482, 483, 484, 485, 486, 487, 488, 489
 490, 491, 492, 493, 494, 495, 496, 497, 498, 499, 500, 501
*Elset, elset=shell_edge
   280,   339,   365,   366,   395,   446,   469,   491,   514,   534,   554,   571,   591,   605,   606,   631
   641,   642,   656,   661,   662,   663,   664,  1361,  1384,  1401,  1422,  1423,  1424,  1425,  1439,  1452
  1463,  1464,  1465,  1466,  1473,  1474,  1485,  1491,  1492,  1493,  1494,  1497,  1498,  1499,  1502,  1503
  1506,  1507,  1509,  1510,  1511,  1512,  1513,  1514,  1532,  1598,  1599,  2757,  2758,  2759,  2760,  3089
  3091,  3169,  3697,  3698,  3765,  3864,  3865,  3899,  3965,  3966,  3969,  4002,  4003,  4004,  4059,  4060
  4089,  4090,  4131,  4132,  4153,  4169,  4170,  4199,  4200,  4213,  4214,  4233,  4234,  4248,  4249,  4250
  4262,  4263,  4266,  4268,  4269,  4272,  4274,  4275,  4281,  4282,  4288,  4289,  4290,  4298,  4301,  4303
  4305,  4306,  4307,  4308,  5032,  5193,  5622,  5660,  5706,  5734,  5736,  5737,  5785,  5788,  6044,  6046
  6117,  6634,  6635,  6702,  6803,  6804,  6838,  6901,  6902,  6905,  6938,  6939,  6940,  6992,  6993,  7024
  7025,  7065,  7066,  7085,  7098,  7099,  7127,  7128,  7140,  7141,  7159,  7160,  7175,  7176,  7177,  7189
  7190,  7193,  7195,  7196,  7199,  7201,  7202,  7208,  7209,  7215,  7216,  7217,  7225,  7228,  7230,  7232
  7233,  7234,  7235,  7576,  8567,  8600,  8604,  8648,  8676,  8678,  8702,  8725,  8814,  9074,  9215,  9270
  9299,  9300,  9327,  9377,  9401,  9421,  9443,  9464,  9481,  9497,  9515,  9529,  9530,  9555,  9565,  9566
  9580,  9585,  9586,  9587,  9588, 10271, 10272, 10292, 10293, 10307, 10308, 10309, 10310, 10324, 10338, 10349
 10350, 10351, 10352, 10358, 10359, 10370, 10376, 10377, 10378, 10381, 10382, 10383, 10386, 10387, 10390, 10391
 10393, 10394, 10395, 10396, 10397, 10416, 10498, 10499, 11626, 11627, 11628, 11737
*********************************************************
*********************************************************
*include, input=HS1_nr_Sets.inp
*********************************************************
*********************************************************  
*Elset, elset=_shell_Edge1_SNEG, internal, generate
     1,  11844,      1
*Surface, type=ELEMENT, name=shell_Edge1
_shell_Edge1_SNEG, SNEG
*Elset, elset=_shell_Edge2_SPOS, internal, generate
     1,  11844,      1
*Surface, type=ELEMENT, name=shell_Edge2
_shell_Edge2_SPOS, SPOS
*********************************************************
*********************************************************
*include, input=HS1_nr_matset.inp
*********************************************************
*********************************************************
*End Part
**  
**
** ASSEMBLY
**
*Assembly, name=Assembly
**  
*Instance, name=Part-1-1, part=Part-1
*End Instance
**  
*End Assembly
*Amplitude, name=Amp-1
           0.01,              0.,              1.,              1.
*********************************************************
*********************************************************
*include, input=Amplitudes_file.inp
*********************************************************
*********************************************************           
** 
** MATERIALS
** 
*Material, name=LCE
*Density
 0.0013,
*Elastic
 1e+06, 0.3
*Expansion, type=ORTHO
 0.01, 0.01, 0.01
*Material, name=Ring
*Density
 0.0013,
*Elastic
 1e+09, 0.3
*Expansion, type=ORTHO
0.,0.,0.
** 
*********************************************************
*********************************************************
*include, input=HS1_nr_matprop_L0p6_20.inp
*********************************************************
*********************************************************
** BOUNDARY CONDITIONS
** 
** Name: BC-1 Type: Displacement/Rotation
*Boundary
Part-1-1.shell_edge, 2, 2
*Boundary
Part-1-1.pinned, PINNED
** Name: BC-2 Type: Displacement/Rotation
***Boundary
**Part-1-1.apex, 1, 1
**Part-1-1.apex, 3, 3
** 
** PREDEFINED FIELDS
** 
** Name: Predefined Field-1   Type: Temperature
*Initial Conditions, type=TEMPERATURE
Part-1-1.shell_full, 25.
** ----------------------------------------------------------------
** 
** STEP: Step-1
** 
*Step, name=Step-1, nlgeom=YES, inc=10000
*Dynamic,application=MODERATE DISSIPATION,initial=NO
0.5,1.,1e-05,1.0
** 
** LOADS
** 
** Name: Load-1   Type: Gravity
*Dload
Part-1-1.shell_full, GRAV, 0.0, 0., -1., 0.
** 
** CONTROLS
** 
*Controls, reset
*Controls, parameters=time incrementation
, , , , , , , 20, , , 
** 
** OUTPUT REQUESTS
** 
*Restart, write, frequency=0
** 
** FIELD OUTPUT: F-Output-1
** 
*Output, field, frequency=2
*Node Output
A, CF, COORD, NT, RF, U, V
*Element Output, directions=YES
E, EE, LE, MISES, NE, S, STH, TEMP
*Contact Output
CDISP, CSTATUS, CSTRESS
** 
** HISTORY OUTPUT: H-Output-1
** 
*Output, history, variable=PRESELECT
*End Step
** ----------------------------------------------------------------
** 
** STEP: Step-2
** 
*Step, name=Step-2, nlgeom=YES, inc=10000
*Dynamic,application=MODERATE DISSIPATION,initial=NO
0.01,10.,1e-08,0.1
** 
** PREDEFINED FIELDS
** 
** Name: Predefined Field-1   Type: Temperature
*Temperature, amplitude=Ampl-3
Part-1-1.shell_full, 1.
** 
** OUTPUT REQUESTS
** 
*Restart, write, frequency=0
** 
** FIELD OUTPUT: F-Output-1
** 
*Output, field, frequency=1
*Node Output
A, CF, COORD, NT, RF, U, V
*Element Output, directions=YES
E, EE, LE, MISES, NE, S, STH, TEMP
*Contact Output
CDISP, CSTATUS, CSTRESS
** 
** HISTORY OUTPUT: H-Output-1
** 
*Output, history, variable=PRESELECT
*End Step
